opendss_networks/LV25_232bus/Switches.dss
new line.Switch_396_CLOSED lineCode=ughv_400al_triplex_ug_4w_bundled bus1=B390 bus2=B2036 length=0.00100000000000 units=km switch=y phases=4
new line.Switch_416_CLOSED lineCode=ughv_400al_triplex_ug_4w_bundled bus1=B149 bus2=B2305 length=0.00100000000000 units=km switch=y phases=4
! new line.Switch_431_OPEN lineCode=ughv_400al_triplex_ug_4w_bundled bus1=B226 bus2=B2874 length=0.00100000000000 units=km switch=y phases=4
new line.Switch_591_CLOSED lineCode=ughv_400al_triplex_ug_4w_bundled bus1=B1803 bus2=B688 length=0.00100000000000 units=km switch=y phases=4
! new line.Switch_1216_OPEN lineCode=ughv_400al_triplex_ug_4w_bundled bus1=B1003 bus2=B1620 length=0.00100000000000 units=km switch=y phases=4
new line.Switch_1464_CLOSED lineCode=ughv_400al_triplex_ug_4w_bundled bus1=B1219 bus2=B883 length=0.00100000000000 units=km switch=y phases=4
new line.Switch_1818_CLOSED lineCode=ughv_400al_triplex_ug_4w_bundled bus1=B494 bus2=B188 length=0.00100000000000 units=km switch=y phases=4
new line.Switch_2535_CLOSED lineCode=ughv_400al_triplex_ug_4w_bundled bus1=B3102 bus2=B1433 length=0.00100000000000 units=km switch=y phases=4
new line.Switch_3115_CLOSED lineCode=ughv_400al_triplex_ug_4w_bundled bus1=B1024 bus2=B113 length=0.00100000000000 units=km switch=y phases=4
! new line.Switch_3687_OPEN lineCode=ughv_400al_triplex_ug_4w_bundled bus1=B2856 bus2=B2301 length=0.00100000000000 units=km switch=y phases=4
new line.Switch_3927_CLOSED lineCode=ughv_400al_triplex_ug_4w_bundled bus1=B2414 bus2=B230 length=0.00100000000000 units=km switch=y phases=4
! new line.Switch_4327_OPEN lineCode=ughv_400al_triplex_ug_4w_bundled bus1=B2213 bus2=B1137 length=0.00100000000000 units=km switch=y phases=4
